%nosave
# opt freq geom=connectivity amber

Guanine

0 1
 O-O--0.585304                 -0.18606300    2.68471500   -0.00327800
 C-C-0.745557                 -0.20780400    1.47172400    0.00272300
 C-CB--0.008473                  0.85508200    0.50290000    0.00739500
 C-CK-0.334450                  2.71392200   -0.53279500    0.00058400
 C-CB-0.524318                  0.52714600   -0.85076300   -0.00022500
 C-CA-0.886367                 -1.67436700   -0.56387100   -0.00225200
 N-NB--0.544921                  2.22441100    0.67627600    0.00702400
 N-N*--0.497666                  1.72889800   -1.50604800   -0.00352900
 N-NC--0.748075                 -0.69700700   -1.43389600    0.00760800
 N-N2--0.822546                 -2.97540000   -1.00435400   -0.06460500
 N-NA--0.842138                 -1.47671400    0.79176200   -0.00235400
 H-H5-0.065101                  3.76291100   -0.78803500   -0.00115700
 H-H-0.357169                  1.85164100   -2.50699100   -0.01077600
 H-H-0.360397                 -3.07719600   -1.99582000    0.09519500
 H-H-0.345547                 -3.69293500   -0.43361100    0.35626100
 H-H-0.430217                 -2.26910600    1.41739100   -0.07165500
 
 1 2 2.0
 2 3 1.5 11 1.0
 3 7 1.5 5 1.5
 4 7 2.0 8 1.0 12 1.0 
 5 8 1.5 9 1.5 
 6 9 2.0 10 1.5 11 1.5 
 7
 8 13 1.0 
 9
 10 14 1.0 15 1.0 
 11 16 1.0
 12
 13
 14
 15
 16

